powerfulcases/cases/matpower/case2736sp/case2736sp.raw
0, 100, 33, 0, 0, 60  / 28-Jan-2026 21:51:23 - MATPOWER 8.1


     1, 'BUS 1       ',       220, 1,    1,    1, 1,   1.1010186,   36.775787, 1.11, 0.95, 1.11, 0.95
     2, 'BUS 2       ',       220, 1,    1,    1, 1,   1.1060162,   38.502827, 1.11, 0.95, 1.11, 0.95
     3, 'BUS 3       ',       220, 1,    1,    1, 1,   1.0848541,   13.549052, 1.11, 0.95, 1.11, 0.95
     4, 'BUS 4       ',       220, 1,    1,    1, 1,    1.092332,   32.518852, 1.11, 0.95, 1.11, 0.95
     5, 'BUS 5       ',       220, 1,    1,    1, 1,    1.092363,   32.517423, 1.11, 0.95, 1.11, 0.95
     6, 'BUS 6       ',       220, 1,    1,    1, 1,   1.0653306,   22.234545, 1.11, 0.95, 1.11, 0.95
     7, 'BUS 7       ',       220, 1,    1,    1, 1,   1.0654455,   22.247039, 1.11, 0.95, 1.11, 0.95
     8, 'BUS 8       ',       400, 1,    1,    1, 1,   1.0256415,   25.401189, 1.05, 0.95, 1.05, 0.95
     9, 'BUS 9       ',       400, 1,    1,    1, 1,   1.0256531,   25.407157, 1.05, 0.95, 1.05, 0.95
    10, 'BUS 10      ',       220, 1,    1,    1, 1,   1.0586771,   21.759947, 1.11, 0.95, 1.11, 0.95
    11, 'BUS 11      ',       220, 1,    1,    1, 1,    1.058595,   21.754988, 1.11, 0.95, 1.11, 0.95
    12, 'BUS 12      ',       220, 1,    1,    1, 1,   1.0585464,   21.761505, 1.11, 0.95, 1.11, 0.95
    13, 'BUS 13      ',       220, 1,    1,    1, 1,   1.0585095,   21.754125, 1.11, 0.95, 1.11, 0.95
    14, 'BUS 14      ',       400, 1,    1,    1, 1,   1.0183879,   26.785477, 1.05, 0.95, 1.05, 0.95
    15, 'BUS 15      ',       400, 1,    1,    1, 1,   1.0315259,   22.695731, 1.05, 0.95, 1.05, 0.95
    16, 'BUS 16      ',       400, 1,    1,    1, 1,   1.0315259,   22.695731, 1.05, 0.95, 1.05, 0.95
    17, 'BUS 17      ',       220, 2,    1,    1, 1,   1.0932112,    16.45159, 1.11, 0.95, 1.11, 0.95
    18, 'BUS 18      ',       220, 1,    1,    1, 1,   1.0932634,   16.451047, 1.11, 0.95, 1.11, 0.95
    19, 'BUS 19      ',       220, 1,    1,    1, 1,    1.096849,   33.519934, 1.11, 0.95, 1.11, 0.95
    20, 'BUS 20      ',       220, 1,    1,    1, 1,   1.0968889,   33.522277, 1.11, 0.95, 1.11, 0.95
    21, 'BUS 21      ',       220, 1,    1,    1, 1,   1.0778181,   20.631124, 1.11, 0.95, 1.11, 0.95
    22, 'BUS 22      ',       220, 1,    1,    1, 1,   1.0778181,   20.631124, 1.11, 0.95, 1.11, 0.95
    23, 'BUS 23      ',       220, 1,    1,    1, 1,   1.0563162,   21.749861, 1.11, 0.95, 1.11, 0.95
    24, 'BUS 24      ',       220, 1,    1,    1, 1,   1.0981385,   35.282073, 1.11, 0.95, 1.11, 0.95
    25, 'BUS 25      ',       400, 1,    1,    1, 1,   1.0325941,   25.080263, 1.05, 0.95, 1.05, 0.95
    26, 'BUS 26      ',       220, 2,    1,    1, 1,        1.11,   37.105871, 1.11, 0.95, 1.11, 0.95
    27, 'BUS 27      ',       220, 2,    1,    1, 1,        1.11,   38.794264, 1.11, 0.95, 1.11, 0.95
    28, 'BUS 28      ',       400, 3,    1,    1, 1,   1.0461868,   36.029099, 1.05, 0.95, 1.05, 0.95
    29, 'BUS 29      ',       400, 2,    1,    1, 1,   1.0461977,    36.03466, 1.05, 0.95, 1.05, 0.95
    30, 'BUS 30      ',       220, 1,    1,    1, 1,   1.0661645,    21.34895, 1.11, 0.95, 1.11, 0.95
    31, 'BUS 31      ',       400, 1,    1,    1, 1,   1.0438875,   34.595074, 1.05, 0.95, 1.05, 0.95
    32, 'BUS 32      ',       220, 1,    1,    1, 1,   1.0557975,   21.446015, 1.11, 0.95, 1.11, 0.95
    33, 'BUS 33      ',       220, 1,    1,    1, 1,   1.0992548,   30.103534, 1.11, 0.95, 1.11, 0.95
    34, 'BUS 34      ',       220, 1,    1,    2, 1,   1.0766806,   27.272544, 1.11, 0.95, 1.11, 0.95
    35, 'BUS 35      ',       220, 1,    1,    2, 1,   1.0798203,   27.673736, 1.11, 0.95, 1.11, 0.95
    36, 'BUS 36      ',       220, 1,    1,    2, 1,   1.0876123,    28.64882, 1.11, 0.95, 1.11, 0.95
    37, 'BUS 37      ',       220, 1,    1,    2, 1,   1.0876009,   28.646874, 1.11, 0.95, 1.11, 0.95
    38, 'BUS 38      ',       220, 1,    1,    2, 1,   1.0668339,   26.033164, 1.11, 0.95, 1.11, 0.95
    39, 'BUS 39      ',       220, 1,    1,    2, 1,        1.11,    28.98362, 1.11, 0.95, 1.11, 0.95
    40, 'BUS 40      ',       220, 1,    1,    2, 1,    1.109887,   28.984018, 1.11, 0.95, 1.11, 0.95
    41, 'BUS 41      ',       400, 1,    1,    2, 1,   1.0237808,   29.189245, 1.05, 0.95, 1.05, 0.95
    42, 'BUS 42      ',       220, 2,    1,    2, 1,   1.0911339,   27.827571, 1.11, 0.95, 1.11, 0.95
    43, 'BUS 43      ',       220, 2,    1,    2, 1,   1.0910418,   27.846018, 1.11, 0.95, 1.11, 0.95
    44, 'BUS 44      ',       400, 2,    1,    2, 1,   1.0274551,   28.252061, 1.05, 0.95, 1.05, 0.95
    45, 'BUS 45      ',       400, 1,    1,    2, 1,   1.0274089,   28.249417, 1.05, 0.95, 1.05, 0.95
    46, 'BUS 46      ',       220, 1,    1,    2, 1,   1.1065267,   28.489454, 1.11, 0.95, 1.11, 0.95
    47, 'BUS 47      ',       400, 1,    1,    2, 1,   1.0378593,   25.850056, 1.05, 0.95, 1.05, 0.95
    48, 'BUS 48      ',       400, 1,    1,    2, 1,    1.037829,    25.84432, 1.05, 0.95, 1.05, 0.95
    49, 'BUS 49      ',       400, 1,    1,    2, 1,   1.0341541,   27.739862, 1.05, 0.95, 1.05, 0.95
    50, 'BUS 50      ',       220, 1,    1,    2, 1,   1.0744468,   27.089094, 1.11, 0.95, 1.11, 0.95
    51, 'BUS 51      ',       220, 1,    1,    2, 1,   1.0744293,   27.091895, 1.11, 0.95, 1.11, 0.95
    52, 'BUS 52      ',       400, 1,    1,    2, 1,   1.0381233,   28.457244, 1.05, 0.95, 1.05, 0.95
    53, 'BUS 53      ',       400, 1,    1,    2, 1,   1.0381438,   28.459291, 1.05, 0.95, 1.05, 0.95
    54, 'BUS 54      ',       220, 2,    1,    2, 1,    1.092432,   29.660532, 1.11, 0.95, 1.11, 0.95
    55, 'BUS 55      ',       220, 2,    1,    2, 1,   1.0923941,   29.657448, 1.11, 0.95, 1.11, 0.95
    56, 'BUS 56      ',       400, 2,    1,    2, 1,   1.0448325,   29.371186, 1.05, 0.95, 1.05, 0.95
    57, 'BUS 57      ',       400, 2,    1,    2, 1,   1.0448051,   29.367657, 1.05, 0.95, 1.05, 0.95
    58, 'BUS 58      ',       220, 2,    1,    2, 1,   1.0849742,    27.40234, 1.11, 0.95, 1.11, 0.95
    59, 'BUS 59      ',       220, 1,    1,    2, 1,   1.0849851,   27.403911, 1.11, 0.95, 1.11, 0.95
    60, 'BUS 60      ',       220, 1,    1,    2, 1,     1.10181,   28.422003, 1.11, 0.95, 1.11, 0.95
    61, 'BUS 61      ',       220, 1,    1,    2, 1,   1.0925329,   27.376057, 1.11, 0.95, 1.11, 0.95
    62, 'BUS 62      ',       220, 1,    1,    2, 1,   1.0924964,   27.373267, 1.11, 0.95, 1.11, 0.95
    63, 'BUS 63      ',       400, 1,    1,    2, 1,   1.0484928,   28.281312, 1.05, 0.95, 1.05, 0.95
    64, 'BUS 64      ',       400, 1,    1,    2, 1,    1.048443,   28.269845, 1.05, 0.95, 1.05, 0.95
    65, 'BUS 65      ',       220, 1,    1,    2, 1,     1.08105,   27.580632, 1.11, 0.95, 1.11, 0.95
    66, 'BUS 66      ',       220, 1,    1,    2, 1,   1.0825042,   27.745917, 1.11, 0.95, 1.11, 0.95
    67, 'BUS 67      ',       220, 1,    1,    2, 1,   1.0750296,   27.807377, 1.11, 0.95, 1.11, 0.95
    68, 'BUS 68      ',       220, 1,    1,    3, 1,   1.1010761,   32.590465, 1.11, 0.95, 1.11, 0.95
    69, 'BUS 69      ',       220, 1,    1,    3, 1,   1.0960299,   29.336414, 1.11, 0.95, 1.11, 0.95
    70, 'BUS 70      ',       220, 1,    1,    3, 1,   1.0958743,   29.343331, 1.11, 0.95, 1.11, 0.95
    71, 'BUS 71      ',       220, 1,    1,    3, 1,   1.0988119,   32.340582, 1.11, 0.95, 1.11, 0.95
    72, 'BUS 72      ',       220, 1,    1,    3, 1,   1.0988429,   32.352565, 1.11, 0.95, 1.11, 0.95
    73, 'BUS 73      ',       220, 1,    1,    3, 1,   1.0958718,    32.07566, 1.11, 0.95, 1.11, 0.95
    74, 'BUS 74      ',       220, 1,    1,    3, 1,   1.0958515,   32.070879, 1.11, 0.95, 1.11, 0.95
    75, 'BUS 75      ',       220, 1,    1,    3, 1,   1.0981431,   30.779823, 1.11, 0.95, 1.11, 0.95
    76, 'BUS 76      ',       220, 1,    1,    3, 1,   1.0980313,   30.772798, 1.11, 0.95, 1.11, 0.95
    77, 'BUS 77      ',       220, 2,    1,    3, 1,   1.1017006,   33.163979, 1.11, 0.95, 1.11, 0.95
    78, 'BUS 78      ',       220, 2,    1,    3, 1,   1.1001979,   33.206703, 1.11, 0.95, 1.11, 0.95
    79, 'BUS 79      ',       220, 1,    1,    3, 1,   1.0917918,   31.874096, 1.11, 0.95, 1.11, 0.95
    80, 'BUS 80      ',       220, 1,    1,    3, 1,   1.0918096,   31.875195, 1.11, 0.95, 1.11, 0.95
    81, 'BUS 81      ',       400, 2,    1,    3, 1,   1.0324377,   32.199744, 1.05, 0.95, 1.05, 0.95
    82, 'BUS 82      ',       220, 1,    1,    3, 1,    1.088144,   31.187203, 1.11, 0.95, 1.11, 0.95
    83, 'BUS 83      ',       220, 1,    1,    3, 1,   1.0979531,   31.585593, 1.11, 0.95, 1.11, 0.95
    84, 'BUS 84      ',       220, 1,    1,    3, 1,   1.0979533,   31.590664, 1.11, 0.95, 1.11, 0.95
    85, 'BUS 85      ',       220, 1,    1,    3, 1,    1.101997,   32.578494, 1.11, 0.95, 1.11, 0.95
    86, 'BUS 86      ',       220, 1,    1,    3, 1,   1.1019728,   32.573278, 1.11, 0.95, 1.11, 0.95
    87, 'BUS 87      ',       220, 1,    1,    3, 1,   1.0921611,   31.890439, 1.11, 0.95, 1.11, 0.95
    88, 'BUS 88      ',       220, 1,    1,    3, 1,   1.0921486,   31.896061, 1.11, 0.95, 1.11, 0.95
    89, 'BUS 89      ',       220, 1,    1,    3, 1,   1.1032657,   33.033004, 1.11, 0.95, 1.11, 0.95
    90, 'BUS 90      ',       220, 1,    1,    3, 1,    1.103263,   33.028595, 1.11, 0.95, 1.11, 0.95
    91, 'BUS 91      ',       400, 1,    1,    3, 1,   1.0475653,   34.208064, 1.05, 0.95, 1.05, 0.95
    92, 'BUS 92      ',       400, 1,    1,    3, 1,   1.0475601,    34.20635, 1.05, 0.95, 1.05, 0.95
    93, 'BUS 93      ',       220, 1,    1,    3, 1,   1.0935069,   31.482247, 1.11, 0.95, 1.11, 0.95
    94, 'BUS 94      ',       220, 1,    1,    3, 1,   1.0935303,   31.477652, 1.11, 0.95, 1.11, 0.95
    95, 'BUS 95      ',       220, 1,    1,    3, 1,   1.0927523,    31.68528, 1.11, 0.95, 1.11, 0.95
    96, 'BUS 96      ',       220, 1,    1,    3, 1,   1.0927385,   31.682752, 1.11, 0.95, 1.11, 0.95
    97, 'BUS 97      ',       220, 2,    1,    3, 1,   1.0988887,   32.455083, 1.11, 0.95, 1.11, 0.95
    98, 'BUS 98      ',       220, 1,    1,    3, 1,   1.0988852,   32.448472, 1.11, 0.95, 1.11, 0.95
    99, 'BUS 99      ',       220, 1,    1,    3, 1,   1.0960777,   29.360785, 1.11, 0.95, 1.11, 0.95
   100, 'BUS 100     ',       220, 1,    1,    3, 1,   1.0960847,   29.360593, 1.11, 0.95, 1.11, 0.95
   101, 'BUS 101     ',       220, 1,    1,    3, 1,    1.091473,   30.406145, 1.11, 0.95, 1.11, 0.95
   102, 'BUS 102     ',       220, 1,    1,    3, 1,   1.0914416,   30.406439, 1.11, 0.95, 1.11, 0.95
   103, 'BUS 103     ',       220, 2,    1,    3, 1,   1.0995351,   31.562811, 1.11, 0.95, 1.11, 0.95
   104, 'BUS 104     ',       220, 2,    1,    3, 1,   1.0994826,   31.535777, 1.11, 0.95, 1.11, 0.95
   105, 'BUS 105     ',       220, 2,    1,    3, 1,   1.0951885,   31.964706, 1.11, 0.95, 1.11, 0.95
   106, 'BUS 106     ',       220, 2,    1,    3, 1,    1.095137,   31.962104, 1.11, 0.95, 1.11, 0.95
   107, 'BUS 107     ',       220, 1,    1,    3, 1,   1.0993639,   31.893822, 1.11, 0.95, 1.11, 0.95
   108, 'BUS 108     ',       220, 1,    1,    3, 1,   1.0993779,   31.884324, 1.11, 0.95, 1.11, 0.95
   109, 'BUS 109     ',       220, 1,    1,    3, 1,   1.0935543,    31.15097, 1.11, 0.95, 1.11, 0.95
   110, 'BUS 110     ',       220, 1,    1,    3, 1,   1.0870297,   31.776981, 1.11, 0.95, 1.11, 0.95
   111, 'BUS 111     ',       220, 1,    1,    3, 1,   1.0870594,   31.777527, 1.11, 0.95, 1.11, 0.95
   112, 'BUS 112     ',       220, 1,    1,    3, 1,     1.09294,   31.951505, 1.11, 0.95, 1.11, 0.95
   113, 'BUS 113     ',       220, 1,    1,    3, 1,   1.0929963,   31.960626, 1.11, 0.95, 1.11, 0.95
   114, 'BUS 114     ',       400, 1,    1,    3, 1,   1.0414756,   31.315391, 1.05, 0.95, 1.05, 0.95
   115, 'BUS 115     ',       220, 2,    1,    3, 1,   1.0996551,   32.842783, 1.11, 0.95, 1.11, 0.95
   116, 'BUS 116     ',       220, 2,    1,    3, 1,   1.0996683,   32.845139, 1.11, 0.95, 1.11, 0.95
   117, 'BUS 117     ',       220, 2,    1,    3, 1,   1.0980564,   31.963394, 1.11, 0.95, 1.11, 0.95
   118, 'BUS 118     ',       220, 1,    1,    3, 1,   1.0980782,   31.954501, 1.11, 0.95, 1.11, 0.95
   119, 'BUS 119     ',       400, 1,    1,    3, 1,   1.0496156,   29.100897, 1.05, 0.95, 1.05, 0.95
   120, 'BUS 120     ',       400, 1,    1,    3, 1,   1.0496497,   29.105654, 1.05, 0.95, 1.05, 0.95
   121, 'BUS 121     ',       400, 1,    1,    3, 1,   1.0499794,   31.482429, 1.05, 0.95, 1.05, 0.95
   122, 'BUS 122     ',       400, 1,    1,    3, 1,        1.05,    31.48757, 1.05, 0.95, 1.05, 0.95
   123, 'BUS 123     ',       220, 1,    1,    3, 1,   1.0928602,   31.085037, 1.11, 0.95, 1.11, 0.95
   124, 'BUS 124     ',       220, 2,    1,    3, 1,   1.0993585,   33.009613, 1.11, 0.95, 1.11, 0.95
   125, 'BUS 125     ',       220, 2,    1,    3, 1,   1.0992582,   33.027058, 1.11, 0.95, 1.11, 0.95
   126, 'BUS 126     ',       400, 2,    1,    3, 1,   1.0363847,    31.71386, 1.05, 0.95, 1.05, 0.95
   127, 'BUS 127     ',       400, 1,    1,    3, 1,   1.0363725,   31.714405, 1.05, 0.95, 1.05, 0.95
   128, 'BUS 128     ',       220, 1,    1,    3, 1,   1.1013954,   32.470129, 1.11, 0.95, 1.11, 0.95
   129, 'BUS 129     ',       220, 1,    1,    3, 1,   1.1013663,   32.472326, 1.11, 0.95, 1.11, 0.95
   130, 'BUS 130     ',       220, 1,    1,    3, 1,   1.1018746,   32.696256, 1.11, 0.95, 1.11, 0.95
   131, 'BUS 131     ',       220, 2,    1,    3, 1,   1.1008625,   31.132371, 1.11, 0.95, 1.11, 0.95
   132, 'BUS 132     ',       220, 2,    1,    3, 1,   1.0980639,   30.772568, 1.11, 0.95, 1.11, 0.95
   133, 'BUS 133     ',       220, 2,    1,    4, 1,        1.11,   28.903756, 1.11, 0.95, 1.11, 0.95
   134, 'BUS 134     ',       220, 2,    1,    4, 1,   1.1099315,   28.901135, 1.11, 0.95, 1.11, 0.95
   135, 'BUS 135     ',       220, 1,    1,    4, 1,   1.0810731,   25.003209, 1.11, 0.95, 1.11, 0.95
   136, 'BUS 136     ',       220, 1,    1,    4, 1,   1.0828301,   25.845304, 1.11, 0.95, 1.11, 0.95
   137, 'BUS 137     ',       400, 1,    1,    4, 1,   1.0065862,   25.629604, 1.05, 0.95, 1.05, 0.95
   138, 'BUS 138     ',       400, 1,    1,    4, 1,   1.0066041,   25.629594, 1.05, 0.95, 1.05, 0.95
   139, 'BUS 139     ',       220, 1,    1,    4, 1,   1.0954147,   18.201899, 1.11, 0.95, 1.11, 0.95
   140, 'BUS 140     ',       220, 1,    1,    4, 1,   1.1000855,   14.087622, 1.11, 0.95, 1.11, 0.95
   141, 'BUS 141     ',       220, 1,    1,    4, 1,   1.1000855,   14.087622, 1.11, 0.95, 1.11, 0.95
   142, 'BUS 142     ',       220, 1,    1,    4, 1,   1.0997348,   16.013776, 1.11, 0.95, 1.11, 0.95
   143, 'BUS 143     ',       220, 1,    1,    4, 1,   1.0776819,   23.706483, 1.11, 0.95, 1.11, 0.95
   144, 'BUS 144     ',       220, 1,    1,    4, 1,   1.0776819,   23.706483, 1.11, 0.95, 1.11, 0.95
   145, 'BUS 145     ',       220, 2,    1,    4, 1,   1.1088684,   25.389294, 1.11, 0.95, 1.11, 0.95
   146, 'BUS 146     ',       220, 2,    1,    4, 1,   1.1088509,   25.388257, 1.11, 0.95, 1.11, 0.95
   147, 'BUS 147     ',       220, 2,    1,    4, 1,        1.11,   16.402836, 1.11, 0.95, 1.11, 0.95
   148, 'BUS 148     ',       220, 1,    1,    4, 1,   1.1099376,   16.407478, 1.11, 0.95, 1.11, 0.95
   149, 'BUS 149     ',       400, 2,    1,    4, 1,   1.0401684,   17.664753, 1.05, 0.95, 1.05, 0.95
   150, 'BUS 150     ',       400, 2,    1,    4, 1,   1.0401565,   17.665765, 1.05, 0.95, 1.05, 0.95
   151, 'BUS 151     ',       220, 1,    1,    4, 1,    1.069707,   17.919442, 1.11, 0.95, 1.11, 0.95
   152, 'BUS 152     ',       220, 1,    1,    4, 1,   1.0969163,   20.247111, 1.11, 0.95, 1.11, 0.95
   153, 'BUS 153     ',       220, 1,    1,    4, 1,    1.096869,   20.242733, 1.11, 0.95, 1.11, 0.95
   154, 'BUS 154     ',       220, 2,    1,    4, 1,   1.0864589,   28.005014, 1.11, 0.95, 1.11, 0.95
   155, 'BUS 155     ',       220, 2,    1,    4, 1,   1.0864932,   27.996658, 1.11, 0.95, 1.11, 0.95
   156, 'BUS 156     ',       400, 1,    1,    4, 1,   1.0043516,   27.561652, 1.05, 0.95, 1.05, 0.95
   157, 'BUS 157     ',       400, 2,    1,    4, 1,   1.0043458,   27.567359, 1.05, 0.95, 1.05, 0.95
   158, 'BUS 158     ',       220, 1,    1,    4, 1,   1.0991142,   14.121984, 1.11, 0.95, 1.11, 0.95
   159, 'BUS 159     ',       220, 1,    1,    4, 1,   1.0991142,   14.121984, 1.11, 0.95, 1.11, 0.95
   160, 'BUS 160     ',       400, 1,    1,    4, 1,     1.01267,   25.596022, 1.05, 0.95, 1.05, 0.95
   161, 'BUS 161     ',       400, 1,    1,    4, 1,   1.0153659,   26.740571, 1.05, 0.95, 1.05, 0.95
   162, 'BUS 162     ',       400, 1,    1,    4, 1,    1.015348,   26.736535, 1.05, 0.95, 1.05, 0.95
   163, 'BUS 163     ',       220, 2,    1,    4, 1,        1.11,   25.217368, 1.11, 0.95, 1.11, 0.95
   164, 'BUS 164     ',       220, 2,    1,    4, 1,        1.11,   25.208728, 1.11, 0.95, 1.11, 0.95
   165, 'BUS 165     ',       220, 1,    1,    4, 1,        1.11,   25.208728, 1.11, 0.95, 1.11, 0.95
   166, 'BUS 166     ',       220, 1,    1,    4, 1,   1.0904059,    14.08851, 1.11, 0.95, 1.11, 0.95
   167, 'BUS 167     ',       220, 1,    1,    4, 1,   1.0992392,   13.957564, 1.11, 0.95, 1.11, 0.95
   168, 'BUS 168     ',       220, 1,    1,    4, 1,   1.0934021,   17.056139, 1.11, 0.95, 1.11, 0.95
   169, 'BUS 169     ',       220, 1,    1,    4, 1,   1.0933821,   17.048382, 1.11, 0.95, 1.11, 0.95
   170, 'BUS 170     ',       400, 1,    1,    4, 1,   1.0280759,   16.561836, 1.05, 0.95, 1.05, 0.95
   171, 'BUS 171     ',       400, 1,    1,    4, 1,   1.0280759,   16.561836, 1.05, 0.95, 1.05, 0.95
   172, 'BUS 172     ',       220, 1,    1,    4, 1,   1.0678718,   20.601469, 1.11, 0.95, 1.11, 0.95
   173, 'BUS 173     ',       220, 1,    1,    4, 1,   1.0678575,   20.607682, 1.11, 0.95, 1.11, 0.95
   174, 'BUS 174     ',       220, 1,    1,    4, 1,   1.0911492,   20.353191, 1.11, 0.95, 1.11, 0.95
   175, 'BUS 175     ',       220, 1,    1,    4, 1,   1.0802612,   25.257031, 1.11, 0.95, 1.11, 0.95
   176, 'BUS 176     ',       220, 1,    1,    4, 1,   1.0802658,   25.266041, 1.11, 0.95, 1.11, 0.95
   177, 'BUS 177     ',       220, 1,    1,    4, 1,   1.0817101,   26.557252, 1.11, 0.95, 1.11, 0.95
   178, 'BUS 178     ',       220, 1,    1,    4, 1,   1.0817101,   26.557252, 1.11, 0.95, 1.11, 0.95
   179, 'BUS 179     ',       220, 2,    1,    4, 1,   1.1099162,   21.486859, 1.11, 0.95, 1.11, 0.95
   180, 'BUS 180     ',       220, 1,    1,    4, 1,   1.0673522,   19.657735, 1.11, 0.95, 1.11, 0.95
   181, 'BUS 181     ',       220, 1,    1,    5, 1,   1.0732574,   17.553962, 1.11, 0.95, 1.11, 0.95
   182, 'BUS 182     ',       220, 1,    1,    5, 1,   1.0910728,   16.004643, 1.11, 0.95, 1.11, 0.95
   183, 'BUS 183     ',       400, 1,    1,    5, 1,   1.0378187,   17.132387, 1.05, 0.95, 1.05, 0.95
   184, 'BUS 184     ',       400, 1,    1,    5, 1,   1.0378411,   17.130523, 1.05, 0.95, 1.05, 0.95
   185, 'BUS 185     ',       400, 1,    1,    5, 1,   1.0320725,   19.082224, 1.05, 0.95, 1.05, 0.95
   186, 'BUS 186     ',       400, 1,    1,    5, 1,   1.0320886,   19.078437, 1.05, 0.95, 1.05, 0.95
   187, 'BUS 187     ',       220, 1,    1,    5, 1,   1.0799827,   14.890281, 1.11, 0.95, 1.11, 0.95
   188, 'BUS 188     ',       220, 1,    1,    5, 1,   1.0800155,   14.889078, 1.11, 0.95, 1.11, 0.95
   189, 'BUS 189     ',       220, 1,    1,    5, 1,    1.075878,   16.448322, 1.11, 0.95, 1.11, 0.95
   190, 'BUS 190     ',       220, 1,    1,    5, 1,   1.0758447,   16.450906, 1.11, 0.95, 1.11, 0.95
   191, 'BUS 191     ',       400, 1,    1,    5, 1,    1.018295,   20.502011, 1.05, 0.95, 1.05, 0.95
   192, 'BUS 192     ',       220, 1,    1,    5, 1,   1.0770296,   18.223772, 1.11, 0.95, 1.11, 0.95
   193, 'BUS 193     ',       220, 1,    1,    5, 1,   1.0770074,   18.226404, 1.11, 0.95, 1.11, 0.95
   194, 'BUS 194     ',       400, 1,    1,    5, 1,   1.0326582,   17.355132, 1.05, 0.95, 1.05, 0.95
   195, 'BUS 195     ',       400, 1,    1,    5, 1,   1.0326384,   17.350893, 1.05, 0.95, 1.05, 0.95
   196, 'BUS 196     ',       220, 1,    1,    5, 1,   1.0748167,   14.510003, 1.11, 0.95, 1.11, 0.95
   197, 'BUS 197     ',       220, 1,    1,    5, 1,    1.074833,    14.50988, 1.11, 0.95, 1.11, 0.95
   198, 'BUS 198     ',       400, 1,    1,    5, 1,    1.029285,   18.184061, 1.05, 0.95, 1.05, 0.95
   199, 'BUS 199     ',       400, 1,    1,    5, 1,   1.0293306,    18.17969, 1.05, 0.95, 1.05, 0.95
   200, 'BUS 200     ',       220, 1,    1,    5, 1,   1.0688896,   16.199594, 1.11, 0.95, 1.11, 0.95
...
0 / END OF BUS DATA, BEGIN LOAD DATA
    26,  1, 1,    1,    1,    61.358,    72.054, 0, 0, 0, 0, 1, 1, 0
    27,  1, 1,    1,    1,    84.861,    122.06, 0, 0, 0, 0, 1, 1, 0
    28,  1, 1,    1,    1,        49,        74, 0, 0, 0, 0, 1, 1, 0
    29,  1, 1,    1,    1,        49,        74, 0, 0, 0, 0, 1, 1, 0
    42,  1, 1,    1,    2,        25,         0, 0, 0, 0, 0, 1, 1, 0
    43,  1, 1,    1,    2,        26,         0, 0, 0, 0, 0, 1, 1, 0
    44,  1, 1,    1,    2,        25,         0, 0, 0, 0, 0, 1, 1, 0
    54,  1, 1,    1,    2,        13,         0, 0, 0, 0, 0, 1, 1, 0
    55,  1, 1,    1,    2,        13,         0, 0, 0, 0, 0, 1, 1, 0
    56,  1, 1,    1,    2,        13,         0, 0, 0, 0, 0, 1, 1, 0
    57,  1, 1,    1,    2,        26,         0, 0, 0, 0, 0, 1, 1, 0
    58,  1, 1,    1,    2,    89.067,        40, 0, 0, 0, 0, 1, 1, 0
    69,  1, 1,    1,    3,    10.327,         0, 0, 0, 0, 0, 1, 1, 0
    70,  1, 1,    1,    3,     8.032,     3.714, 0, 0, 0, 0, 1, 1, 0
    77,  1, 1,    1,    3,        27,        70, 0, 0, 0, 0, 1, 1, 0
    78,  1, 1,    1,    3,      18.7,        42, 0, 0, 0, 0, 1, 1, 0
    79,  1, 1,    1,    3,     4.934,     0.817, 0, 0, 0, 0, 1, 1, 0
    81,  1, 1,    1,    3,        18,        57, 0, 0, 0, 0, 1, 1, 0
    85,  1, 1,    1,    3,    44.864,      -6.4, 0, 0, 0, 0, 1, 1, 0
    97,  1, 1,    1,    3,     12.49,     3.696, 0, 0, 0, 0, 1, 1, 0
    98,  1, 1,    1,    3,    17.327,     6.126, 0, 0, 0, 0, 1, 1, 0
   103,  1, 1,    1,    3,        14,        40, 0, 0, 0, 0, 1, 1, 0
   105,  1, 1,    1,    3,         7,        18, 0, 0, 0, 0, 1, 1, 0
   108,  1, 1,    1,    3,    73.779,     8.097, 0, 0, 0, 0, 1, 1, 0
   116,  1, 1,    1,    3,         8,        15, 0, 0, 0, 0, 1, 1, 0
   117,  1, 1,    1,    3,       5.5,        10, 0, 0, 0, 0, 1, 1, 0
   124,  1, 1,    1,    3,        11,      17.5, 0, 0, 0, 0, 1, 1, 0
   125,  1, 1,    1,    3,    41.353,      61.2, 0, 0, 0, 0, 1, 1, 0
   126,  1, 1,    1,    3,        14,        33, 0, 0, 0, 0, 1, 1, 0
   131,  1, 1,    1,    3,       1.5,         9, 0, 0, 0, 0, 1, 1, 0
   133,  1, 1,    1,    4,    11.215,       8.3, 0, 0, 0, 0, 1, 1, 0
   134,  1, 1,    1,    4,    10.333,       7.7, 0, 0, 0, 0, 1, 1, 0
   147,  1, 1,    1,    4,    25.553,      12.9, 0, 0, 0, 0, 1, 1, 0
   149,  1, 1,    1,    4,        11,        12, 0, 0, 0, 0, 1, 1, 0
   150,  1, 1,    1,    4,    11.922,      13.7, 0, 0, 0, 0, 1, 1, 0
   154,  1, 1,    1,    4,    19.475,      64.3, 0, 0, 0, 0, 1, 1, 0
   155,  1, 1,    1,    4,        16,        33, 0, 0, 0, 0, 1, 1, 0
   157,  1, 1,    1,    4,        10,        25, 0, 0, 0, 0, 1, 1, 0
   163,  1, 1,    1,    4,      5.54,      2.93, 0, 0, 0, 0, 1, 1, 0
   164,  1, 1,    1,    4,    18.255,      11.5, 0, 0, 0, 0, 1, 1, 0
   179,  1, 1,    1,    4,      3.13,       1.5, 0, 0, 0, 0, 1, 1, 0
   208,  1, 1,    1,    1,      9.59,         1, 0, 0, 0, 0, 1, 1, 0
   209,  1, 1,    1,    1,     4.795,       0.5, 0, 0, 0, 0, 1, 1, 0
   210,  1, 1,    1,    1,     4.262,         2, 0, 0, 0, 0, 1, 1, 0
   211,  1, 1,    1,    1,       6.5,       5.4, 0, 0, 0, 0, 1, 1, 0
   212,  1, 1,    1,    1,     2.877,       0.6, 0, 0, 0, 0, 1, 1, 0
   213,  1, 1,    1,    1,     3.197,       0.3, 0, 0, 0, 0, 1, 1, 0
   214,  1, 1,    1,    1,    21.711,      12.3, 0, 0, 0, 0, 1, 1, 0
   215,  1, 1,    1,    1,    12.254,         2, 0, 0, 0, 0, 1, 1, 0
   216,  1, 1,    1,    1,     6.926,         2, 0, 0, 0, 0, 1, 1, 0
   217,  1, 1,    1,    1,    10.655,       1.5, 0, 0, 0, 0, 1, 1, 0
   218,  1, 1,    1,    1,     7.672,         3, 0, 0, 0, 0, 1, 1, 0
   219,  1, 1,    1,    1,     8.524,         2, 0, 0, 0, 0, 1, 1, 0
   221,  1, 1,    1,    1,     6.606,       2.1, 0, 0, 0, 0, 1, 1, 0
   222,  1, 1,    1,    1,     8.099,       1.5, 0, 0, 0, 0, 1, 1, 0
   223,  1, 1,    1,    1,     0.746,       0.1, 0, 0, 0, 0, 1, 1, 0
   224,  1, 1,    1,    1,     3.943,       0.2, 0, 0, 0, 0, 1, 1, 0
   225,  1, 1,    1,    1,     3.197,       0.5, 0, 0, 0, 0, 1, 1, 0
   226,  1, 1,    1,    1,    12.787,         1, 0, 0, 0, 0, 1, 1, 0
   227,  1, 1,    1,    1,     4.475,       0.7, 0, 0, 0, 0, 1, 1, 0
   228,  1, 1,    1,    1,     4.262,       0.7, 0, 0, 0, 0, 1, 1, 0
   229,  1, 1,    1,    1,     2.451,      0.98, 0, 0, 0, 0, 1, 1, 0
   230,  1, 1,    1,    1,     2.451,      0.98, 0, 0, 0, 0, 1, 1, 0
   231,  1, 1,    1,    1,     5.327,         1, 0, 0, 0, 0, 1, 1, 0
   232,  1, 1,    1,    1,     4.262,         1, 0, 0, 0, 0, 1, 1, 0
   233,  1, 1,    1,    1,     9.057,       0.4, 0, 0, 0, 0, 1, 1, 0
   234,  1, 1,    1,    1,    31.966,    28.001, 0, 0, 0, 0, 1, 1, 0
   235,  1, 1,    1,    1,      5.86,       0.8, 0, 0, 0, 0, 1, 1, 0
   236,  1, 1,    1,    1,     8.631,      2.94, 0, 0, 0, 0, 1, 1, 0
   237,  1, 1,    1,    1,     5.967,       0.2, 0, 0, 0, 0, 1, 1, 0
   238,  1, 1,    1,    1,     5.328,       0.5, 0, 0, 0, 0, 1, 1, 0
   240,  1, 1,    1,    1,     12.04,         1, 0, 0, 0, 0, 1, 1, 0
   241,  1, 1,    1,    1,     3.836,      1.18, 0, 0, 0, 0, 1, 1, 0
   242,  1, 1,    1,    1,     3.729,       0.4, 0, 0, 0, 0, 1, 1, 0
   243,  1, 1,    1,    1,     3.729,       0.4, 0, 0, 0, 0, 1, 1, 0
   244,  1, 1,    1,    1,     2.131,       1.1, 0, 0, 0, 0, 1, 1, 0
   247,  1, 1,    1,    1,     7.458,         1, 0, 0, 0, 0, 1, 1, 0
   248,  1, 1,    1,    1,     2.131,         0, 0, 0, 0, 0, 1, 1, 0
   249,  1, 1,    1,    1,     2.131,         0, 0, 0, 0, 0, 1, 1, 0
   250,  1, 1,    1,    1,     2.664,       0.5, 0, 0, 0, 0, 1, 1, 0
   251,  1, 1,    1,    1,     3.516,       0.1, 0, 0, 0, 0, 1, 1, 0
   252,  1, 1,    1,    1,    11.721,       5.4, 0, 0, 0, 0, 1, 1, 0
   253,  1, 1,    1,    1,    11.721,         4, 0, 0, 0, 0, 1, 1, 0
   254,  1, 1,    1,    1,    10.122,         1, 0, 0, 0, 0, 1, 1, 0
   255,  1, 1,    1,    1,    12.787,       1.5, 0, 0, 0, 0, 1, 1, 0
   256,  1, 1,    1,    1,     4.795,         0, 0, 0, 0, 0, 1, 1, 0
   257,  1, 1,    1,    1,     3.197,      0.65, 0, 0, 0, 0, 1, 1, 0
   258,  1, 1,    1,    1,     3.197,      0.65, 0, 0, 0, 0, 1, 1, 0
   259,  1, 1,    1,    1,     7.992,      2.47, 0, 0, 0, 0, 1, 1, 0
   260,  1, 1,    1,    1,     4.795,         0, 0, 0, 0, 0, 1, 1, 0
   261,  1, 1,    1,    1,     8.098,       1.5, 0, 0, 0, 0, 1, 1, 0
   263,  1, 1,    1,    1,     1.279,         1, 0, 0, 0, 0, 1, 1, 0
   264,  1, 1,    1,    1,    25.574,        22, 0, 0, 0, 0, 1, 1, 0
   265,  1, 1,    1,    1,    34.097,        30, 0, 0, 0, 0, 1, 1, 0
   266,  1, 1,    1,    1,    27.704,       0.8, 0, 0, 0, 0, 1, 1, 0
   267,  1, 1,    1,    1,     1.066,         0, 0, 0, 0, 0, 1, 1, 0
   268,  1, 1,    1,    1,      9.59,       0.8, 0, 0, 0, 0, 1, 1, 0
   269,  1, 1,    1,    1,     5.967,         2, 0, 0, 0, 0, 1, 1, 0
   270,  1, 1,    1,    1,     9.057,       1.5, 0, 0, 0, 0, 1, 1, 0
   271,  1, 1,    1,    1,     6.393,       0.5, 0, 0, 0, 0, 1, 1, 0
   272,  1, 1,    1,    1,     7.885,      1.85, 0, 0, 0, 0, 1, 1, 0
   273,  1, 1,    1,    1,     0.426,       0.1, 0, 0, 0, 0, 1, 1, 0
   274,  1, 1,    1,    1,     0.213,      0.06, 0, 0, 0, 0, 1, 1, 0
   276,  1, 1,    1,    1,    11.401,      5.18, 0, 0, 0, 0, 1, 1, 0
   278,  1, 1,    1,    1,     5.328,       1.4, 0, 0, 0, 0, 1, 1, 0
   279,  1, 1,    1,    1,     2.131,       0.5, 0, 0, 0, 0, 1, 1, 0
   280,  1, 1,    1,    1,     5.328,       0.5, 0, 0, 0, 0, 1, 1, 0
   281,  1, 1,    1,    1,     5.328,         1, 0, 0, 0, 0, 1, 1, 0
   282,  1, 1,    1,    1,     5.328,         1, 0, 0, 0, 0, 1, 1, 0
   283,  1, 1,    1,    1,    14.918,        12, 0, 0, 0, 0, 1, 1, 0
   284,  1, 1,    1,    1,    37.294,        33, 0, 0, 0, 0, 1, 1, 0
   285,  1, 1,    1,    1,     1.386,       0.4, 0, 0, 0, 0, 1, 1, 0
   287,  1, 1,    1,    1,     8.525,       2.9, 0, 0, 0, 0, 1, 1, 0
   288,  1, 1,    1,    1,     7.459,         2, 0, 0, 0, 0, 1, 1, 0
   289,  1, 1,    1,    1,     6.926,       0.5, 0, 0, 0, 0, 1, 1, 0
   290,  1, 1,    1,    1,     4.795,         0, 0, 0, 0, 0, 1, 1, 0
   291,  1, 1,    1,    1,     3.729,       2.5, 0, 0, 0, 0, 1, 1, 0
   292,  1, 1,    1,    1,     2.344,       0.2, 0, 0, 0, 0, 1, 1, 0
   293,  1, 1,    1,    1,    11.402,       4.1, 0, 0, 0, 0, 1, 1, 0
   294,  1, 1,    1,    1,     8.311,       1.5, 0, 0, 0, 0, 1, 1, 0
   295,  1, 1,    1,    1,     4.902,      1.51, 0, 0, 0, 0, 1, 1, 0
   296,  1, 1,    1,    1,     1.704,       1.4, 0, 0, 0, 0, 1, 1, 0
   297,  1, 1,    1,    1,     4.582,       0.5, 0, 0, 0, 0, 1, 1, 0
   298,  1, 1,    1,    1,     7.672,       0.8, 0, 0, 0, 0, 1, 1, 0
   299,  1, 1,    1,    1,     4.262,       0.7, 0, 0, 0, 0, 1, 1, 0
   300,  1, 1,    1,    1,      6.18,      2.11, 0, 0, 0, 0, 1, 1, 0
   301,  1, 1,    1,    1,     8.205,      2.53, 0, 0, 0, 0, 1, 1, 0
   302,  1, 1,    1,    1,     8.524,       0.5, 0, 0, 0, 0, 1, 1, 0
   304,  1, 1,    1,    1,     4.049,       1.5, 0, 0, 0, 0, 1, 1, 0
   305,  1, 1,    1,    1,     7.992,      2.72, 0, 0, 0, 0, 1, 1, 0
   306,  1, 1,    1,    1,     7.779,       2.4, 0, 0, 0, 0, 1, 1, 0
   307,  1, 1,    1,    1,    13.746,      4.24, 0, 0, 0, 0, 1, 1, 0
   308,  1, 1,    1,    1,    12.254,      3.78, 0, 0, 0, 0, 1, 1, 0
   309,  1, 1,    1,    1,    14.147,     9.046, 0, 0, 0, 0, 1, 1, 0
   310,  1, 1,    1,    1,    11.759,         7, 0, 0, 0, 0, 1, 1, 0
   311,  1, 1,    1,    1,    15.573,       8.3, 0, 0, 0, 0, 1, 1, 0
   313,  1, 1,    1,    1,    10.354,      5.48, 0, 0, 0, 0, 1, 1, 0
   314,  1, 1,    1,    1,      6.18,      5.15, 0, 0, 0, 0, 1, 1, 0
   315,  1, 1,    1,    1,     8.525,       1.2, 0, 0, 0, 0, 1, 1, 0
   316,  1, 1,    1,    1,     2.131,       0.5, 0, 0, 0, 0, 1, 1, 0
   317,  1, 1,    1,    1,     4.794,       1.5, 0, 0, 0, 0, 1, 1, 0
   318,  1, 1,    1,    1,     3.996,      1.25, 0, 0, 0, 0, 1, 1, 0
   319,  1, 1,    1,    1,     6.127,      1.25, 0, 0, 0, 0, 1, 1, 0
   320,  1, 1,    1,    1,     6.926,       2.5, 0, 0, 0, 0, 1, 1, 0
   321,  1, 1,    1,    1,     8.205,      2.53, 0, 0, 0, 0, 1, 1, 0
   322,  1, 1,    1,    1,    14.598,      4.51, 0, 0, 0, 0, 1, 1, 0
   323,  1, 1,    1,    1,    12.787,       1.5, 0, 0, 0, 0, 1, 1, 0
   324,  1, 1,    1,    1,    13.959,      4.76, 0, 0, 0, 0, 1, 1, 0
   325,  1, 1,    1,    1,     5.967,      1.84, 0, 0, 0, 0, 1, 1, 0
   326,  1, 1,    1,    1,     5.967,      1.84, 0, 0, 0, 0, 1, 1, 0
   327,  1, 1,    1,    1,     7.459,         1, 0, 0, 0, 0, 1, 1, 0
   328,  1, 1,    1,    1,    13.852,         3, 0, 0, 0, 0, 1, 1, 0
   329,  1, 1,    1,    1,     9.057,       2.8, 0, 0, 0, 0, 1, 1, 0
   330,  1, 1,    1,    1,     5.328,         2, 0, 0, 0, 0, 1, 1, 0
   331,  1, 1,    1,    1,     3.197,         1, 0, 0, 0, 0, 1, 1, 0
   332,  1, 1,    1,    1,    26.852,      8.29, 0, 0, 0, 0, 1, 1, 0
   333,  1, 1,    1,    1,     7.459,         1, 0, 0, 0, 0, 1, 1, 0
   334,  1, 1,    1,    1,     2.664,       0.8, 0, 0, 0, 0, 1, 1, 0
   335,  1, 1,    1,    1,      5.86,       0.8, 0, 0, 0, 0, 1, 1, 0
   336,  1, 1,    1,    1,     5.434,       0.2, 0, 0, 0, 0, 1, 1, 0
   337,  1, 1,    1,    1,     7.352,      2.27, 0, 0, 0, 0, 1, 1, 0
   338,  1, 1,    1,    1,     7.459,       2.7, 0, 0, 0, 0, 1, 1, 0
   339,  1, 1,    1,    1,      9.59,       2.7, 0, 0, 0, 0, 1, 1, 0
   340,  1, 1,    1,    1,      9.59,       2.7, 0, 0, 0, 0, 1, 1, 0
   341,  1, 1,    1,    1,     2.664,       0.5, 0, 0, 0, 0, 1, 1, 0
   344,  1, 1,    1,    1,    11.188,         4, 0, 0, 0, 0, 1, 1, 0
   345,  1, 1,    1,    1,    11.188,       3.5, 0, 0, 0, 0, 1, 1, 0
   347,  1, 1,    1,    1,     3.729,       0.5, 0, 0, 0, 0, 1, 1, 0
   348,  1, 1,    1,    1,     5.328,         1, 0, 0, 0, 0, 1, 1, 0
   349,  1, 1,    1,    1,     6.926,       0.4, 0, 0, 0, 0, 1, 1, 0
   350,  1, 1,    1,    1,    11.614,      3.59, 0, 0, 0, 0, 1, 1, 0
   351,  1, 1,    1,    1,     7.672,       1.8, 0, 0, 0, 0, 1, 1, 0
   353,  1, 1,    1,    1,     4.262,         1, 0, 0, 0, 0, 1, 1, 0
   355,  1, 1,    1,    1,     1.066,       0.3, 0, 0, 0, 0, 1, 1, 0
   358,  1, 1,    1,    1,     6.393,       1.9, 0, 0, 0, 0, 1, 1, 0
   359,  1, 1,    1,    1,     6.926,       2.5, 0, 0, 0, 0, 1, 1, 0
   360,  1, 1,    1,    1,     9.057,       1.2, 0, 0, 0, 0, 1, 1, 0
   363,  1, 1,    1,    1,     5.861,       0.8, 0, 0, 0, 0, 1, 1, 0
   364,  1, 1,    1,    1,     4.156,       0.8, 0, 0, 0, 0, 1, 1, 0
   365,  1, 1,    1,    1,    53.277,        10, 0, 0, 0, 0, 1, 1, 0
   366,  1, 1,    1,    1,    53.277,        10, 0, 0, 0, 0, 1, 1, 0
   367,  1, 1,    1,    1,    53.277,        10, 0, 0, 0, 0, 1, 1, 0
   368,  1, 1,    1,    1,    53.277,        10, 0, 0, 0, 0, 1, 1, 0
   370,  1, 1,    1,    1,     8.524,       0.8, 0, 0, 0, 0, 1, 1, 0
   371,  1, 1,    1,    1,    17.048,         1, 0, 0, 0, 0, 1, 1, 0
   372,  1, 1,    1,    1,     4.262,         1, 0, 0, 0, 0, 1, 1, 0
   374,  1, 1,    1,    1,    11.721,       3.1, 0, 0, 0, 0, 1, 1, 0
   375,  1, 1,    1,    1,     2.664,       0.7, 0, 0, 0, 0, 1, 1, 0
   376,  1, 1,    1,    1,     2.664,       0.7, 0, 0, 0, 0, 1, 1, 0
   377,  1, 1,    1,    1,     6.393,       1.5, 0, 0, 0, 0, 1, 1, 0
   378,  1, 1,    1,    1,     6.607,       0.4, 0, 0, 0, 0, 1, 1, 0
   379,  1, 1,    1,    1,      5.86,       1.2, 0, 0, 0, 0, 1, 1, 0
   380,  1, 1,    1,    1,     4.795,       0.8, 0, 0, 0, 0, 1, 1, 0
   381,  1, 1,    1,    1,     2.131,         1, 0, 0, 0, 0, 1, 1, 0
   382,  1, 1,    1,    1,    10.655,       2.1, 0, 0, 0, 0, 1, 1, 0
   383,  1, 1,    1,    1,     7.459,       1.8, 0, 0, 0, 0, 1, 1, 0
   384,  1, 1,    1,    1,    12.254,       3.5, 0, 0, 0, 0, 1, 1, 0
   387,  1, 1,    1,    1,     2.131,       0.5, 0, 0, 0, 0, 1, 1, 0
   388,  1, 1,    1,    1,     7.779,       2.8, 0, 0, 0, 0, 1, 1, 0
   389,  1, 1,    1,    1,    11.934,      3.68, 0, 0, 0, 0, 1, 1, 0
...
0 / END OF LOAD DATA, BEGIN FIXED SHUNT DATA
   198, 1, 1,       0,    -117
0 / END OF FIXED SHUNT DATA, BEGIN GENERATOR DATA
    17,  1,         0,         0,       120,       -22,  1.07106, 0,   241.9, 0, 1, 0, 0, 1, 0, 100,       210,       140, 1, 1, 0, 1, 0, 1, 0, 1, 0, 1
    17,  2,         0,         0,       120,       -22,  1.07106, 0,   233.2, 0, 1, 0, 0, 1, 0, 100,       200,       140, 1, 1, 0, 1, 0, 1, 0, 1, 0, 1
    26,  1,       370,       -19,       190,       -19,  1.09091, 0,   415.9, 0, 1, 0, 0, 1, 1, 100,       370,       290, 1, 1, 0, 1, 0, 1, 0, 1, 0, 1
    27,  1,       360,   174.108,       190,       -19,  1.09091, 0,   407.1, 0, 1, 0, 0, 1, 1, 100,       360,       290, 1, 1, 0, 1, 0, 1, 0, 1, 0, 1
    27,  2,       360,       -19,       190,       -19,  1.09091, 0,   407.1, 0, 1, 0, 0, 1, 1, 100,       360,       290, 1, 1, 0, 1, 0, 1, 0, 1, 0, 1
    27,  3,       370,  -17.3049,       190,       -19,  1.09091, 0,   415.9, 0, 1, 0, 0, 1, 1, 100,       370,       290, 1, 1, 0, 1, 0, 1, 0, 1, 0, 1
    26,  2,       370,   144.893,       190,       -19,  1.09091, 0,   415.9, 0, 1, 0, 0, 1, 1, 100,       370,       290, 1, 1, 0, 1, 0, 1, 0, 1, 0, 1
    28,  1,       370,       -19,       190,       -19,  1.02665, 0,   415.9, 0, 1, 0, 0, 1, 1, 100,       370,       290, 1, 1, 0, 1, 0, 1, 0, 1, 0, 1
    28,  2,         0,         0,       190,       -19,  1.02665, 0,   415.9, 0, 1, 0, 0, 1, 0, 100,       370,       290, 1, 1, 0, 1, 0, 1, 0, 1, 0, 1
    28,  3,       370,       -19,       190,       -19,  1.02665, 0,   415.9, 0, 1, 0, 0, 1, 1, 100,       370,       290, 1, 1, 0, 1, 0, 1, 0, 1, 0, 1
    29,  1,         0,         0,       190,       -19,  1.02665, 0,   415.9, 0, 1, 0, 0, 1, 0, 100,       370,       290, 1, 1, 0, 1, 0, 1, 0, 1, 0, 1
    29,  2,       370,   8.93896,       190,       -19,  1.02665, 0,   415.9, 0, 1, 0, 0, 1, 1, 100,       370,       290, 1, 1, 0, 1, 0, 1, 0, 1, 0, 1
    29,  3,       370,       -19,       190,       -19,  1.02665, 0,   415.9, 0, 1, 0, 0, 1, 1, 100,       370,       290, 1, 1, 0, 1, 0, 1, 0, 1, 0, 1
    42,  1,       130,       -34,       135,       -34,  1.09091, 0,   253.9, 0, 1, 0, 0, 1, 1, 100,       215,       130, 1, 1, 0, 1, 0, 1, 0, 1, 0, 1
    42,  2,         0,         0,       130,       -34,  1.09091, 0,   242.7, 0, 1, 0, 0, 1, 0, 100,       205,       135, 1, 1, 0, 1, 0, 1, 0, 1, 0, 1
    42,  3,       110,       -34,       145,       -34,  1.09091, 0,   267.7, 0, 1, 0, 0, 1, 1, 100,       225,       110, 1, 1, 0, 1, 0, 1, 0, 1, 0, 1
    43,  1,       120,       -34,       145,       -34,  1.09091, 0,   267.7, 0, 1, 0, 0, 1, 1, 100,       225,       120, 1, 1, 0, 1, 0, 1, 0, 1, 0, 1
    43,  2,       130,       -34,       145,       -34,  1.09091, 0,   267.7, 0, 1, 0, 0, 1, 1, 100,       225,       130, 1, 1, 0, 1, 0, 1, 0, 1, 0, 1
    43,  3,         0,         0,       130,       -34,  1.09091, 0,   242.7, 0, 1, 0, 0, 1, 0, 100,       205,       135, 1, 1, 0, 1, 0, 1, 0, 1, 0, 1
    44,  1,   433.768,       -47,       363,       -47,  1.01857, 0,   646.5, 0, 1, 0, 0, 1, 1, 100,       535,       255, 1, 1, 0, 1, 0, 1, 0, 1, 0, 1
    44,  2,         0,         0,       348,      -100,  1.01857, 0,   659.3, 0, 1, 0, 0, 1, 0, 100,       560,       250, 1, 1, 0, 1, 0, 1, 0, 1, 0, 1
    54,  1,       129,        -1,       104,        -1,  1.09116, 0,   247.9, 0, 1, 0, 0, 1, 1, 100,       225,       129, 1, 1, 0, 1, 0, 1, 0, 1, 0, 1
    55,  1,       129,       -16,       130,       -16,  1.09114, 0,   259.9, 0, 1, 0, 0, 1, 1, 100,       225,       129, 1, 1, 0, 1, 0, 1, 0, 1, 0, 1
    54,  2,         0,         0,       130,       -16,  1.09116, 0,   259.9, 0, 1, 0, 0, 1, 0, 100,       225,       129, 1, 1, 0, 1, 0, 1, 0, 1, 0, 1
    56,  1,       129,       -16,       130,       -16,  1.04039, 0,   259.9, 0, 1, 0, 0, 1, 1, 100,       225,       129, 1, 1, 0, 1, 0, 1, 0, 1, 0, 1
    57,  1,       129,       -16,       130,       -16,  1.04036, 0,   259.9, 0, 1, 0, 0, 1, 1, 100,       225,       129, 1, 1, 0, 1, 0, 1, 0, 1, 0, 1
    57,  2,         0,         0,       104,        -1,  1.04036, 0,   247.9, 0, 1, 0, 0, 1, 0, 100,       225,       129, 1, 1, 0, 1, 0, 1, 0, 1, 0, 1
    57,  3,       129,       -16,       130,       -16,  1.04036, 0,   259.9, 0, 1, 0, 0, 1, 1, 100,       225,       129, 1, 1, 0, 1, 0, 1, 0, 1, 0, 1
    58,  1,      48.1,         0,        30,         0,  1.08754, 0,    66.5, 0, 1, 0, 0, 1, 1, 100,      48.1,      48.1, 1, 1, 0, 1, 0, 1, 0, 1, 0, 1
    77,  1,       225,   56.4466,       123,       -15,  1.09091, 0,   256.4, 0, 1, 0, 0, 1, 1, 100,       225,       140, 1, 1, 0, 1, 0, 1, 0, 1, 0, 1
    77,  2,       225,   56.4466,       123,       -15,  1.09091, 0,   256.4, 0, 1, 0, 0, 1, 1, 100,       225,       140, 1, 1, 0, 1, 0, 1, 0, 1, 0, 1
    78,  1,         0,         0,       123,       -15,  1.09091, 0,     252, 0, 1, 0, 0, 1, 0, 100,       220,       140, 1, 1, 0, 1, 0, 1, 0, 1, 0, 1
    78,  2,       225, 0.0284002,       123,       -15,  1.09091, 0,   256.4, 0, 1, 0, 0, 1, 1, 100,       225,       140, 1, 1, 0, 1, 0, 1, 0, 1, 0, 1
    78,  3,       225, 0.0284002,       123,       -15,  1.09091, 0,   256.4, 0, 1, 0, 0, 1, 1, 100,       225,       140, 1, 1, 0, 1, 0, 1, 0, 1, 0, 1
    81,  1,       380,       -31,       232,       -31,  1.02168, 0,   445.2, 0, 1, 0, 0, 1, 1, 100,       380,       220, 1, 1, 0, 1, 0, 1, 0, 1, 0, 1
    81,  2,         0,         0,       228,       -30,  1.02168, 0,   434.6, 0, 1, 0, 0, 1, 0, 100,       370,       220, 1, 1, 0, 1, 0, 1, 0, 1, 0, 1
    97,  1,         9,         0,         1,         0,  1.08955, 0,      12, 0, 1, 0, 0, 1, 1, 100,         9,         9, 1, 1, 0, 1, 0, 1, 0, 1, 0, 1
    97,  2,         6,         0,         1,         0,  1.08955, 0,     6.1, 0, 1, 0, 0, 1, 1, 100,         6,         6, 1, 1, 0, 1, 0, 1, 0, 1, 0, 1
   103,  1,       225,   111.228,       123,       -15,  1.08905, 0,   256.4, 0, 1, 0, 0, 1, 1, 100,       225,       134, 1, 1, 0, 1, 0, 1, 0, 1, 0, 1
   104,  1,         0,         0,       123,       -15,  1.08898, 0,   256.4, 0, 1, 0, 0, 1, 0, 100,       225,       134, 1, 1, 0, 1, 0, 1, 0, 1, 0, 1
   105,  1,       120,   44.1891,        80,        -2,   1.0875, 0,   144.2, 0, 1, 0, 0, 1, 1, 100,       120,        79, 1, 1, 0, 1, 0, 1, 0, 1, 0, 1
   106,  1,         0,         0,        80,        -2,   1.0874, 0,   144.2, 0, 1, 0, 0, 1, 0, 100,       120,        79, 1, 1, 0, 1, 0, 1, 0, 1, 0, 1
   115,  1,         0,         0,        90,       -20,  1.08993, 0,     150, 0, 1, 0, 0, 1, 0, 100,       120,        90, 1, 1, 0, 1, 0, 1, 0, 1, 0, 1
   116,  1,       120,        -2,        82,        -2,  1.08992, 0,   145.3, 0, 1, 0, 0, 1, 1, 100,       120,        70, 1, 1, 0, 1, 0, 1, 0, 1, 0, 1
   117,  1,       110,         0,        40,         0,  1.08788, 0,     117, 0, 1, 0, 0, 1, 1, 100,       110,        80, 1, 1, 0, 1, 0, 1, 0, 1, 0, 1
   124,  1,       215,       -35,       135,       -35,  1.09093, 0,   253.9, 0, 1, 0, 0, 1, 1, 100,       215,       160, 1, 1, 0, 1, 0, 1, 0, 1, 0, 1
   125,  1,       225,   76.0784,       140,       -35,  1.09091, 0,     265, 0, 1, 0, 0, 1, 1, 100,       225,       140, 1, 1, 0, 1, 0, 1, 0, 1, 0, 1
   125,  2,       215,       -35,       135,       -35,  1.09091, 0,   253.9, 0, 1, 0, 0, 1, 1, 100,       215,       160, 1, 1, 0, 1, 0, 1, 0, 1, 0, 1
   126,  1,       225,       -40,       140,       -40,  1.02511, 0,     265, 0, 1, 0, 0, 1, 1, 100,       225,       140, 1, 1, 0, 1, 0, 1, 0, 1, 0, 1
   126,  2,         0,         0,       137,       -40,  1.02511, 0,   259.2, 0, 1, 0, 0, 1, 0, 100,       220,       160, 1, 1, 0, 1, 0, 1, 0, 1, 0, 1
   131,  1,       125,        40,        40,       -38,  1.08591, 0,   131.2, 0, 1, 0, 0, 1, 1, 100,       125,         0, 1, 1, 0, 1, 0, 1, 0, 1, 0, 1
   131,  2,         0,         0,        40,       -38,  1.08591, 0,   131.2, 0, 1, 0, 0, 1, 0, 100,       125,         0, 1, 1, 0, 1, 0, 1, 0, 1, 0, 1
   132,  1,         0,         0,        40,       -38,  1.08371, 0,   131.2, 0, 1, 0, 0, 1, 0, 100,       125,         0, 1, 1, 0, 1, 0, 1, 0, 1, 0, 1
   132,  2,         0,         0,        40,       -38,  1.08371, 0,   131.2, 0, 1, 0, 0, 1, 0, 100,       125,         0, 1, 1, 0, 1, 0, 1, 0, 1, 0, 1
   133,  1,         0,         0,        90,         0,  1.09091, 0,     150, 0, 1, 0, 0, 1, 0, 100,       120,       100, 1, 1, 0, 1, 0, 1, 0, 1, 0, 1
   133,  2,       120,   49.9848,        90,         0,  1.09091, 0,     150, 0, 1, 0, 0, 1, 1, 100,       120,       100, 1, 1, 0, 1, 0, 1, 0, 1, 0, 1
   134,  1,       120,         0,        90,         0,  1.09091, 0,     150, 0, 1, 0, 0, 1, 1, 100,       120,       100, 1, 1, 0, 1, 0, 1, 0, 1, 0, 1
   145,  1,         0,         0,        12,         0,  1.08954, 0,    51.4, 0, 1, 0, 0, 1, 0, 100,        50,        30, 1, 1, 0, 1, 0, 1, 0, 1, 0, 1
   145,  2,         0,         0,        12,         0,  1.08954, 0,    51.4, 0, 1, 0, 0, 1, 0, 100,        50,        30, 1, 1, 0, 1, 0, 1, 0, 1, 0, 1
   146,  1,         0,         0,        90,         0,  1.08953, 0,     150, 0, 1, 0, 0, 1, 0, 100,       120,        90, 1, 1, 0, 1, 0, 1, 0, 1, 0, 1
   147,  1,         0,         0,       149,       -48,  1.08582, 0,   267.4, 0, 1, 0, 0, 1, 0, 100,       222,        90, 1, 1, 0, 1, 0, 1, 0, 1, 0, 1
   147,  2,         0,         0,       149,       -48,  1.08582, 0,   253.4, 0, 1, 0, 0, 1, 0, 100,       205,       135, 1, 1, 0, 1, 0, 1, 0, 1, 0, 1
   147,  3,         0,         0,       149,       -48,  1.08582, 0,   253.4, 0, 1, 0, 0, 1, 0, 100,       205,       135, 1, 1, 0, 1, 0, 1, 0, 1, 0, 1
   147,  4,        90,   94.0447,       149,       -48,  1.08582, 0,   267.4, 0, 1, 0, 0, 1, 1, 100,       222,        90, 1, 1, 0, 1, 0, 1, 0, 1, 0, 1
   149,  1,        90,       -23,       123,       -23,  1.02501, 0,   253.8, 0, 1, 0, 0, 1, 1, 100,       222,        90, 1, 1, 0, 1, 0, 1, 0, 1, 0, 1
   150,  1,        90,       -48,       149,       -48,    1.025, 0,   267.4, 0, 1, 0, 0, 1, 1, 100,       222,        90, 1, 1, 0, 1, 0, 1, 0, 1, 0, 1
   150,  2,         0,         0,       123,       -23,    1.025, 0,   253.8, 0, 1, 0, 0, 1, 0, 100,       222,        90, 1, 1, 0, 1, 0, 1, 0, 1, 0, 1
   154,  1,       235,       -53,       149,       -53,  1.09091, 0,   278.3, 0, 1, 0, 0, 1, 1, 100,       235,        94, 1, 1, 0, 1, 0, 1, 0, 1, 0, 1
   154,  2,         0,         0,       149,       -53,  1.09091, 0,   278.3, 0, 1, 0, 0, 1, 0, 100,       235,        94, 1, 1, 0, 1, 0, 1, 0, 1, 0, 1
   154,  3,       261,         0,       120,         0,  1.09091, 0,   287.3, 0, 1, 0, 0, 1, 1, 100,       261,       104, 1, 1, 0, 1, 0, 1, 0, 1, 0, 1
   154,  4,         0,         0,       132,       -40,  1.09091, 0,   292.5, 0, 1, 0, 0, 1, 0, 100,       261,       104, 1, 1, 0, 1, 0, 1, 0, 1, 0, 1
   155,  1,         0,         0,       120,         0,  1.09091, 0,   287.3, 0, 1, 0, 0, 1, 0, 100,       261,       104, 1, 1, 0, 1, 0, 1, 0, 1, 0, 1
   155,  2,       205,       -22,       117,       -22,  1.09091, 0,     236, 0, 1, 0, 0, 1, 1, 100,       205,       130, 1, 1, 0, 1, 0, 1, 0, 1, 0, 1
   155,  3,       206,       -20,       109,       -20,  1.09091, 0,   233.1, 0, 1, 0, 0, 1, 1, 100,       206,       120, 1, 1, 0, 1, 0, 1, 0, 1, 0, 1
   155,  4,         0,         0,       109,       -20,  1.09091, 0,   233.1, 0, 1, 0, 0, 1, 0, 100,       206,       120, 1, 1, 0, 1, 0, 1, 0, 1, 0, 1
   157,  1,       206,   28.5083,       109,       -20,  1.00076, 0,   233.1, 0, 1, 0, 0, 1, 1, 100,       206,       120, 1, 1, 0, 1, 0, 1, 0, 1, 0, 1
   163,  1,         0,         0,       104,       -23,  1.09091, 0,   225.4, 0, 1, 0, 0, 1, 0, 100,       200,       150, 1, 1, 0, 1, 0, 1, 0, 1, 0, 1
   163,  2,       200,   64.6061,       104,       -23,  1.09091, 0,   225.4, 0, 1, 0, 0, 1, 1, 100,       200,       150, 1, 1, 0, 1, 0, 1, 0, 1, 0, 1
   164,  1,       200,   10.9272,       104,       -23,  1.09091, 0,   225.4, 0, 1, 0, 0, 1, 1, 100,       200,       150, 1, 1, 0, 1, 0, 1, 0, 1, 0, 1
   164,  2,       200,       104,       104,       -23,  1.09091, 0,   225.4, 0, 1, 0, 0, 1, 1, 100,       200,       150, 1, 1, 0, 1, 0, 1, 0, 1, 0, 1
   179,  1,       170,   65.6015,       110,         0,  1.09091, 0,   219.5, 0, 1, 0, 0, 1, 1, 100,       170,       170, 1, 1, 0, 1, 0, 1, 0, 1, 0, 1
   204,  1,       179,       -60,       110,       -60,    1.025, 0,   210.1, 0, 1, 0, 0, 1, 1, 100,       179,         0, 1, 1, 0, 1, 0, 1, 0, 1, 0, 1
   204,  2,       179,       110,       110,       -60,    1.025, 0,   210.1, 0, 1, 0, 0, 1, 1, 100,       179,         0, 1, 1, 0, 1, 0, 1, 0, 1, 0, 1
   204,  3,       179,       -60,       110,       -60,    1.025, 0,   210.1, 0, 1, 0, 0, 1, 1, 100,       179,         0, 1, 1, 0, 1, 0, 1, 0, 1, 0, 1
   205,  1,       179,  -14.8355,       110,       -60,    1.025, 0,   210.1, 0, 1, 0, 0, 1, 1, 100,       179,         0, 1, 1, 0, 1, 0, 1, 0, 1, 0, 1
   214,  1,        35,         0,        20,         0,  1.09209, 0,    58.5, 0, 1, 0, 0, 1, 1, 100,        35,        35, 1, 1, 0, 1, 0, 1, 0, 1, 0, 1
   214,  2,         0,         0,        20,         0,  1.09209, 0,    53.9, 0, 1, 0, 0, 1, 0, 100,         0,         0, 1, 1, 0, 1, 0, 1, 0, 1, 0, 1
   214,  3,         0,         0,        20,         0,  1.09209, 0,    53.9, 0, 1, 0, 0, 1, 0, 100,         0,         0, 1, 1, 0, 1, 0, 1, 0, 1, 0, 1
   214,  4,        10,   11.2737,        20,         0,  1.09209, 0,    30.5, 0, 1, 0, 0, 1, 1, 100,        10,        10, 1, 1, 0, 1, 0, 1, 0, 1, 0, 1
   220,  1,      1.55,   0.72928,         1,         0,  1.08853, 0,     2.3, 0, 1, 0, 0, 1, 1, 100,      1.55,      1.55, 1, 1, 0, 1, 0, 1, 0, 1, 0, 1
   221,  1,      1.55,         1,         1,         0,  1.07119, 0,     2.3, 0, 1, 0, 0, 1, 1, 100,      1.55,      1.55, 1, 1, 0, 1, 0, 1, 0, 1, 0, 1
   239,  1,         7,         6,         6,         0,  1.05821, 0,     9.8, 0, 1, 0, 0, 1, 1, 100,         7,         7, 1, 1, 0, 1, 0, 1, 0, 1, 0, 1
   246,  1,       370,   61.8297,       190,       -19,  1.03937, 0,   415.9, 0, 1, 0, 0, 1, 1, 100,       370,       290, 1, 1, 0, 1, 0, 1, 0, 1, 0, 1
   309,  1,         0,         0,         7,         0,  1.08081, 0,    27.9, 0, 1, 0, 0, 1, 0, 100,         0,         0, 1, 1, 0, 1, 0, 1, 0, 1, 0, 1
   309,  2,         0,         0,         7,         0,  1.08081, 0,    27.9, 0, 1, 0, 0, 1, 0, 100,         0,         0, 1, 1, 0, 1, 0, 1, 0, 1, 0, 1
   309,  3,        11,         7,         7,         4,  1.08081, 0,    30.8, 0, 1, 0, 0, 1, 1, 100,        11,        11, 1, 1, 0, 1, 0, 1, 0, 1, 0, 1
   309,  4,         0,         0,         7,         0,  1.08081, 0,    27.9, 0, 1, 0, 0, 1, 0, 100,         0,         0, 1, 1, 0, 1, 0, 1, 0, 1, 0, 1
   309,  5,         0,         0,         6,         0,  1.08081, 0,    27.7, 0, 1, 0, 0, 1, 0, 100,         0,         0, 1, 1, 0, 1, 0, 1, 0, 1, 0, 1
   309,  6,         0,         0,         7,         0,  1.08081, 0,    27.9, 0, 1, 0, 0, 1, 0, 100,         0,         0, 1, 1, 0, 1, 0, 1, 0, 1, 0, 1
   309,  7,         0,         0,         7,         0,  1.08081, 0,    27.9, 0, 1, 0, 0, 1, 0, 100,         0,         0, 1, 1, 0, 1, 0, 1, 0, 1, 0, 1
   310,  1,        15,        15,        15,         0,  1.08142, 0,    36.7, 0, 1, 0, 0, 1, 1, 100,        15,        15, 1, 1, 0, 1, 0, 1, 0, 1, 0, 1
   310,  2,         0,         0,        15,         0,  1.08142, 0,      57, 0, 1, 0, 0, 1, 0, 100,         0,         0, 1, 1, 0, 1, 0, 1, 0, 1, 0, 1
   311,  1,        15,        15,        15,         0,   1.0633, 0,    36.7, 0, 1, 0, 0, 1, 1, 100,        15,        15, 1, 1, 0, 1, 0, 1, 0, 1, 0, 1
   311,  2,         0,         0,        15,         0,   1.0633, 0,      57, 0, 1, 0, 0, 1, 0, 100,         0,         0, 1, 1, 0, 1, 0, 1, 0, 1, 0, 1
   313,  1,        30,        20,        20,         0,  1.08629, 0,    53.9, 0, 1, 0, 0, 1, 1, 100,        30,        30, 1, 1, 0, 1, 0, 1, 0, 1, 0, 1
   313,  2,         0,         0,        20,         0,  1.08629, 0,    53.9, 0, 1, 0, 0, 1, 0, 100,         0,         0, 1, 1, 0, 1, 0, 1, 0, 1, 0, 1
   314,  1,         0,         0,        40,         0,  1.07946, 0,   107.7, 0, 1, 0, 0, 1, 0, 100,         0,         0, 1, 1, 0, 1, 0, 1, 0, 1, 0, 1
   322,  1,       2.5,         3,         3,         0,  1.08468, 0,     4.1, 0, 1, 0, 0, 1, 1, 100,       2.5,       2.5, 1, 1, 0, 1, 0, 1, 0, 1, 0, 1
   365,  1,     43.25,        12,        12,         0,  1.08196, 0,    47.8, 0, 1, 0, 0, 1, 1, 100,     43.25,     43.25, 1, 1, 0, 1, 0, 1, 0, 1, 0, 1
   366,  1,     43.25,        12,        12,         0,  1.06579, 0,    47.8, 0, 1, 0, 0, 1, 1, 100,     43.25,     43.25, 1, 1, 0, 1, 0, 1, 0, 1, 0, 1
   367,  1,     43.25,    8.7805,        12,         0,  1.08899, 0,    47.8, 0, 1, 0, 0, 1, 1, 100,     43.25,     43.25, 1, 1, 0, 1, 0, 1, 0, 1, 0, 1
   368,  1,     43.25,        12,        12,         0,  1.08537, 0,    47.8, 0, 1, 0, 0, 1, 1, 100,     43.25,     43.25, 1, 1, 0, 1, 0, 1, 0, 1, 0, 1
   385,  1,       140,   40.9072,       138,       -47,  1.09091, 0,   251.3, 0, 1, 0, 0, 1, 1, 100,       210,       140, 1, 1, 0, 1, 0, 1, 0, 1, 0, 1
   385,  2,         0,         0,        10,         0,  1.09091, 0,    26.9, 0, 1, 0, 0, 1, 0, 100,        25,        12, 1, 1, 0, 1, 0, 1, 0, 1, 0, 1
   386,  1,        10,    7.0916,        10,         0,   1.0782, 0,    19.7, 0, 1, 0, 0, 1, 1, 100,        17,        10, 1, 1, 0, 1, 0, 1, 0, 1, 0, 1
   443,  1,       1.5,         2,         2,         0,  1.04966, 0,     3.6, 0, 1, 0, 0, 1, 1, 100,       1.5,       1.5, 1, 1, 0, 1, 0, 1, 0, 1, 0, 1
   452,  1,      5.21,         2,         2,         0,  1.07378, 0,     6.1, 0, 1, 0, 0, 1, 1, 100,      5.21,      5.21, 1, 1, 0, 1, 0, 1, 0, 1, 0, 1
   452,  2,         0,         0,         2,         0,  1.07378, 0,     6.1, 0, 1, 0, 0, 1, 0, 100,         0,         0, 1, 1, 0, 1, 0, 1, 0, 1, 0, 1
   485,  1,       1.4,       0.7,       0.7,         0,  1.05018, 0,     1.7, 0, 1, 0, 0, 1, 1, 100,       1.4,       1.4, 1, 1, 0, 1, 0, 1, 0, 1, 0, 1
   536,  1,        40,        14,        14,         0,  1.06099, 0,    53.9, 0, 1, 0, 0, 1, 1, 100,        40,        40, 1, 1, 0, 1, 0, 1, 0, 1, 0, 1
   536,  2,         0,         0,        14,         0,  1.06099, 0,    34.9, 0, 1, 0, 0, 1, 0, 100,         0,         0, 1, 1, 0, 1, 0, 1, 0, 1, 0, 1
   536,  3,         0,         0,        14,         0,  1.06099, 0,      34, 0, 1, 0, 0, 1, 0, 100,         0,         0, 1, 1, 0, 1, 0, 1, 0, 1, 0, 1
   536,  4,         0,         0,        14,         0,  1.06099, 0,   105.9, 0, 1, 0, 0, 1, 0, 100,         0,         0, 1, 1, 0, 1, 0, 1, 0, 1, 0, 1
   536,  5,         0,         0,        14,         0,  1.06099, 0,   105.9, 0, 1, 0, 0, 1, 0, 100,         0,         0, 1, 1, 0, 1, 0, 1, 0, 1, 0, 1
   537,  1,        25,      17.5,      17.5,         0,  1.05485, 0,    36.5, 0, 1, 0, 0, 1, 1, 100,        25,        25, 1, 1, 0, 1, 0, 1, 0, 1, 0, 1
   537,  2,        25,      17.5,      17.5,         0,  1.05485, 0,    35.6, 0, 1, 0, 0, 1, 1, 100,        25,        25, 1, 1, 0, 1, 0, 1, 0, 1, 0, 1
   537,  3,         0,         0,      17.5,         0,  1.05485, 0,   126.2, 0, 1, 0, 0, 1, 0, 100,         0,         0, 1, 1, 0, 1, 0, 1, 0, 1, 0, 1
   537,  4,         0,         0,      17.5,         0,  1.05485, 0,   106.4, 0, 1, 0, 0, 1, 0, 100,         0,         0, 1, 1, 0, 1, 0, 1, 0, 1, 0, 1
   551,  1,       1.4,       0.7,       0.7,         0,  1.05264, 0,     1.7, 0, 1, 0, 0, 1, 1, 100,       1.4,       1.4, 1, 1, 0, 1, 0, 1, 0, 1, 0, 1
   559,  1,        30,         5,         5,         0,  1.05731, 0,    34.4, 0, 1, 0, 0, 1, 1, 100,        30,        30, 1, 1, 0, 1, 0, 1, 0, 1, 0, 1
   559,  2,         0,         0,         5,         0,  1.05731, 0,    28.4, 0, 1, 0, 0, 1, 0, 100,         0,         0, 1, 1, 0, 1, 0, 1, 0, 1, 0, 1
   559,  3,         0,         0,         5,         0,  1.05731, 0,    26.5, 0, 1, 0, 0, 1, 0, 100,         0,         0, 1, 1, 0, 1, 0, 1, 0, 1, 0, 1
   559,  4,         0,         0,         5,         0,  1.05731, 0,    30.4, 0, 1, 0, 0, 1, 0, 100,         0,         0, 1, 1, 0, 1, 0, 1, 0, 1, 0, 1
   559,  5,         0,         0,         5,         0,  1.05731, 0,    34.4, 0, 1, 0, 0, 1, 0, 100,         0,         0, 1, 1, 0, 1, 0, 1, 0, 1, 0, 1
   560,  1,        30,         5,         5,         0,  1.05563, 0,    34.4, 0, 1, 0, 0, 1, 1, 100,        30,        30, 1, 1, 0, 1, 0, 1, 0, 1, 0, 1
   560,  2,         0,         0,         5,         0,  1.05563, 0,    34.4, 0, 1, 0, 0, 1, 0, 100,         0,         0, 1, 1, 0, 1, 0, 1, 0, 1, 0, 1
   560,  3,         0,         0,         5,         0,  1.05563, 0,    26.5, 0, 1, 0, 0, 1, 0, 100,         0,         0, 1, 1, 0, 1, 0, 1, 0, 1, 0, 1
   560,  4,         0,         0,         5,         0,  1.05563, 0,    34.4, 0, 1, 0, 0, 1, 0, 100,         0,         0, 1, 1, 0, 1, 0, 1, 0, 1, 0, 1
   573,  1,         1,         4,         4,         0,  1.07878, 0,     8.9, 0, 1, 0, 0, 1, 1, 100,         1,         1, 1, 1, 0, 1, 0, 1, 0, 1, 0, 1
   626,  1,        78,         0,        30,         0,  1.09062, 0,    97.7, 0, 1, 0, 0, 1, 1, 100,        78,        78, 1, 1, 0, 1, 0, 1, 0, 1, 0, 1
   626,  2,        30,         0,        30,         0,  1.09062, 0,    46.8, 0, 1, 0, 0, 1, 1, 100,        30,        30, 1, 1, 0, 1, 0, 1, 0, 1, 0, 1
   664,  1,       130,   57.2913,       145,       -34,  1.09109, 0,   267.7, 0, 1, 0, 0, 1, 1, 100,       225,       130, 1, 1, 0, 1, 0, 1, 0, 1, 0, 1
   665,  1,         0,         0,       145,       -34,  1.09081, 0,   267.7, 0, 1, 0, 0, 1, 0, 100,       225,       130, 1, 1, 0, 1, 0, 1, 0, 1, 0, 1
   685,  1,       150,         0,        30,         0,   1.0956, 0,   182.5, 0, 1, 0, 0, 1, 1, 100,       150,       150, 1, 1, 0, 1, 0, 1, 0, 1, 0, 1
   685,  2,        50,         0,        30,         0,   1.0956, 0,    77.5, 0, 1, 0, 0, 1, 1, 100,        50,        50, 1, 1, 0, 1, 0, 1, 0, 1, 0, 1
   691,  1,      2.43,         0,       1.8,         0,  1.08826, 0,     3.1, 0, 1, 0, 0, 1, 1, 100,      2.43,      2.43, 1, 1, 0, 1, 0, 1, 0, 1, 0, 1
   716,  1,      1.47,         0,       1.3,         0,   1.0787, 0,    10.1, 0, 1, 0, 0, 1, 1, 100,      1.47,      1.47, 1, 1, 0, 1, 0, 1, 0, 1, 0, 1
   740,  1,       129,       -16,       130,       -16,  1.09091, 0,   259.9, 0, 1, 0, 0, 1, 1, 100,       225,       129, 1, 1, 0, 1, 0, 1, 0, 1, 0, 1
   763,  1,        86,         0,        30,         0,  1.07793, 0,   105.4, 0, 1, 0, 0, 1, 1, 100,        86,        86, 1, 1, 0, 1, 0, 1, 0, 1, 0, 1
   792,  1,         1,  0.315172,         1,         0,  1.05313, 0,     8.4, 0, 1, 0, 0, 1, 1, 100,         1,         1, 1, 1, 0, 1, 0, 1, 0, 1, 0, 1
   796,  1,      68.1,   1.91188,        23,         0,  1.06122, 0,    71.9, 0, 1, 0, 0, 1, 1, 100,      68.1,         5, 1, 1, 0, 1, 0, 1, 0, 1, 0, 1
   796,  2,         0,         0,        23,         0,  1.06122, 0,    71.9, 0, 1, 0, 0, 1, 0, 100,      68.1,         5, 1, 1, 0, 1, 0, 1, 0, 1, 0, 1
   796,  3,         0,         0,        11,         0,  1.06122, 0,    32.9, 0, 1, 0, 0, 1, 0, 100,        31,        16, 1, 1, 0, 1, 0, 1, 0, 1, 0, 1
   796,  4,         0,         0,        10,         0,  1.06122, 0,    32.6, 0, 1, 0, 0, 1, 0, 100,        31,        16, 1, 1, 0, 1, 0, 1, 0, 1, 0, 1
   807,  1,         0,         0,        10,         0,  1.08198, 0,   125.4, 0, 1, 0, 0, 1, 0, 100,       125,        84, 1, 1, 0, 1, 0, 1, 0, 1, 0, 1
   808,  1,        92,         0,        10,         0,  1.08715, 0,   125.4, 0, 1, 0, 0, 1, 1, 100,       125,        92, 1, 1, 0, 1, 0, 1, 0, 1, 0, 1
   845,  1,        15,         0,       8.1,         0,  1.07142, 0,      33, 0, 1, 0, 0, 1, 1, 100,        15,        15, 1, 1, 0, 1, 0, 1, 0, 1, 0, 1
   845,  2,        15,         0,       8.1,         0,  1.07142, 0,      33, 0, 1, 0, 0, 1, 1, 100,        15,        15, 1, 1, 0, 1, 0, 1, 0, 1, 0, 1
   845,  3,         0,         0,         0,         0,  1.07142, 0,      19, 0, 1, 0, 0, 1, 0, 100,         0,         0, 1, 1, 0, 1, 0, 1, 0, 1, 0, 1
   845,  4,         0,         0,         0,         0,  1.07142, 0,      19, 0, 1, 0, 0, 1, 0, 100,         0,         0, 1, 1, 0, 1, 0, 1, 0, 1, 0, 1
   877,  1,        35,   12.9886,      41.2,         0,  1.08527, 0,    87.7, 0, 1, 0, 0, 1, 1, 100,        35,        35, 1, 1, 0, 1, 0, 1, 0, 1, 0, 1
   900,  1,         0,         0,        45,       -10,  1.07146, 0,    65.8, 0, 1, 0, 0, 1, 0, 100,         0,         0, 1, 1, 0, 1, 0, 1, 0, 1, 0, 1
   900,  2,        50,   20.7457,        45,       -10,  1.07146, 0,    71.1, 0, 1, 0, 0, 1, 1, 100,        50,        50, 1, 1, 0, 1, 0, 1, 0, 1, 0, 1
   900,  3,         0,         0,        45,       -10,  1.07146, 0,    71.1, 0, 1, 0, 0, 1, 0, 100,         0,         0, 1, 1, 0, 1, 0, 1, 0, 1, 0, 1
   975,  1,         0,         0,       110,       -40,  1.07686, 0,   162.2, 0, 1, 0, 0, 1, 0, 100,         0,         0, 1, 1, 0, 1, 0, 1, 0, 1, 0, 1
   976,  1,       100,   33.7466,       110,       -40,  1.08609, 0,   162.2, 0, 1, 0, 0, 1, 1, 100,       100,       100, 1, 1, 0, 1, 0, 1, 0, 1, 0, 1
   980,  1,         0,         0,         0,         0,  1.08643, 0,    16.8, 0, 1, 0, 0, 1, 0, 100,         0,         0, 1, 1, 0, 1, 0, 1, 0, 1, 0, 1
  1001,  1,       386,   19.2843,       240,       -32,  1.10276, 0,   454.5, 0, 1, 0, 0, 1, 1, 100,       386,       220, 1, 1, 0, 1, 0, 1, 0, 1, 0, 1
...